Version 4
SHEET 1 880 680
SYMBOL ind 176 144 R270
WINDOW 0 32 56 VTop 2
WINDOW 3 5 56 VBottom 2
SYMATTR InstName L1
SYMBOL cap 128 160 R0
SYMATTR InstName C1
SYMBOL cap 304 160 R0
SYMATTR InstName C2
